/*--------------------------------*- C++ -*----------------------------------*\
  =========                 |
  \\      /  F ield         | OpenFOAM: The Open Source CFD Toolbox
   \\    /   O peration     | Website:  https://openfoam.org
    \\  /    A nd           | Version:  9
     \\/     M anipulation  |
\*---------------------------------------------------------------------------*/
FoamFile
{
    format      ascii;
    class       dictionary;
    location    "system";
    object      fvSolution;
}
// * * * * * * * * * * * * * * * * * * * * * * * * * * * * * * * * * * * * * //


solvers
{
    p
    {
        solver           GAMG;
        tolerance        1e-5;
        relTol           1e-3;

        smoother         DICGaussSeidel;

    }

    pFinal
    {
        $p;
        tolerance	1e-6; 
        relTol          0;
    }

    U
    {
        solver          smoothSolver;
        smoother        symGaussSeidel;
        tolerance       1e-06;
        relTol          1e-4;
    }

    UFinal
    {
        $U;
	tolerance	1e-07;
        relTol          0;
    }
}

PIMPLE
{
    nNonOrthogonalCorrectors 0;
    nCorrectors         3;
    nOuterCorrectors    3;
}




// ************************************************************************* //
